<?xml version="1.0" encoding="UTF-8"?>

<!-- generated on 2025-05-14 15:37:52 by Eclipse SUMO netedit Version 1.22.0
<neteditConfiguration xmlns:xsi="http://www.w3.org/2001/XMLSchema-instance" xsi:noNamespaceSchemaLocation="http://sumo.dlr.de/xsd/neteditConfiguration.xsd">

    <input>
        <sumocfg-file value="C:\Users\Hajwma\Downloads\sumo-ai-v2\RL.sumocfg"/>
        <route-files value="C:\Users\Hajwma\Downloads\sumo-ai-v2\RL.rou.xml"/>
        <sumo-net-file value="C:\Users\Hajwma\Downloads\sumo-ai-v2\RL.net.xml"/>
    </input>

    <output>
        <output-file value="C:\Users\Hajwma\Downloads\sumo-ai-v2\RL.net.xml"/>
    </output>

    <processing>
        <offset.disable-normalization value="true"/>
    </processing>

    <junctions>
        <no-turnarounds value="true"/>
    </junctions>

    <netedit>
        <new-network value="false"/>
    </netedit>

</neteditConfiguration>
-->

<net version="1.20" junctionCornerDetail="5" limitTurnSpeed="5.50" xmlns:xsi="http://www.w3.org/2001/XMLSchema-instance" xsi:noNamespaceSchemaLocation="http://sumo.dlr.de/xsd/net_file.xsd">

    <location netOffset="0.00,0.00" convBoundary="-239.81,-243.52,757.62,299.75" origBoundary="10000000000.00,10000000000.00,-10000000000.00,-10000000000.00" projParameter="!"/>

    <edge id=":J4_0" function="internal">
        <lane id=":J4_0_0" index="0" speed="6.79" length="9.68" width="4.00" shape="196.34,41.08 195.97,38.45 194.84,36.58 192.97,35.45 190.34,35.08"/>
    </edge>
    <edge id=":J4_1" function="internal">
        <lane id=":J4_1_0" index="0" speed="13.89" length="40.00" width="4.00" shape="196.34,41.08 196.34,1.08"/>
        <lane id=":J4_1_1" index="1" speed="13.89" length="40.00" width="4.00" shape="200.34,41.08 200.34,1.08"/>
        <lane id=":J4_1_2" index="2" speed="13.89" length="40.00" width="4.00" shape="204.34,41.08 204.34,1.08"/>
    </edge>
    <edge id=":J4_4" function="internal">
        <lane id=":J4_4_0" index="0" speed="12.43" length="35.48" width="4.00" shape="208.34,41.08 209.72,31.45 213.84,24.58 220.72,20.45 230.34,19.08"/>
    </edge>
    <edge id=":J4_5" function="internal">
        <lane id=":J4_5_0" index="0" speed="6.79" length="9.68" width="4.00" shape="230.34,35.08 227.72,35.45 225.84,36.58 224.72,38.45 224.34,41.08"/>
    </edge>
    <edge id=":J4_6" function="internal">
        <lane id=":J4_6_0" index="0" speed="13.89" length="40.00" width="4.00" shape="230.34,35.08 190.34,35.08"/>
        <lane id=":J4_6_1" index="1" speed="13.89" length="40.00" width="4.00" shape="230.34,31.08 190.34,31.08"/>
        <lane id=":J4_6_2" index="2" speed="13.89" length="40.00" width="4.00" shape="230.34,27.08 190.34,27.08"/>
    </edge>
    <edge id=":J4_9" function="internal">
        <lane id=":J4_9_0" index="0" speed="12.43" length="35.48" width="4.00" shape="230.34,23.08 220.72,21.70 213.84,17.58 209.72,10.70 208.34,1.08"/>
    </edge>
    <edge id=":J4_10" function="internal">
        <lane id=":J4_10_0" index="0" speed="6.79" length="9.68" width="4.00" shape="224.34,1.08 224.72,3.70 225.84,5.58 227.72,6.70 230.34,7.08"/>
    </edge>
    <edge id=":J4_11" function="internal">
        <lane id=":J4_11_0" index="0" speed="13.89" length="40.00" width="4.00" shape="224.34,1.08 224.34,41.08"/>
        <lane id=":J4_11_1" index="1" speed="13.89" length="40.00" width="4.00" shape="220.34,1.08 220.34,41.08"/>
        <lane id=":J4_11_2" index="2" speed="13.89" length="40.00" width="4.00" shape="216.34,1.08 216.34,41.08"/>
    </edge>
    <edge id=":J4_14" function="internal">
        <lane id=":J4_14_0" index="0" speed="12.43" length="35.48" width="4.00" shape="212.34,1.08 210.97,10.70 206.84,17.58 199.97,21.70 190.34,23.08"/>
    </edge>
    <edge id=":J4_15" function="internal">
        <lane id=":J4_15_0" index="0" speed="6.79" length="9.68" width="4.00" shape="190.34,7.08 192.97,6.70 194.84,5.58 195.97,3.70 196.34,1.08"/>
    </edge>
    <edge id=":J4_16" function="internal">
        <lane id=":J4_16_0" index="0" speed="13.89" length="40.00" width="4.00" shape="190.34,7.08 230.34,7.08"/>
        <lane id=":J4_16_1" index="1" speed="13.89" length="40.00" width="4.00" shape="190.34,11.08 230.34,11.08"/>
        <lane id=":J4_16_2" index="2" speed="13.89" length="40.00" width="4.00" shape="190.34,15.08 230.34,15.08"/>
    </edge>
    <edge id=":J4_19" function="internal">
        <lane id=":J4_19_0" index="0" speed="12.43" length="35.48" width="4.00" shape="190.34,19.08 199.97,20.45 206.84,24.58 210.97,31.45 212.34,41.08"/>
    </edge>

    <edge id="-E1" from="J4" to="J3" priority="-1">
        <lane id="-E1_0" index="0" speed="13.89" length="430.15" width="4.00" shape="190.34,35.08 -239.81,35.08"/>
        <lane id="-E1_1" index="1" speed="13.89" length="430.15" width="4.00" shape="190.34,31.08 -239.81,31.08"/>
        <lane id="-E1_2" index="2" speed="13.89" length="430.15" width="4.00" shape="190.34,27.08 -239.81,27.08"/>
        <lane id="-E1_3" index="3" speed="13.89" length="430.15" width="4.00" shape="190.34,23.08 -239.81,23.08"/>
    </edge>
    <edge id="-E2" from="J5" to="J4" priority="-1">
        <lane id="-E2_0" index="0" speed="13.89" length="527.28" width="4.00" shape="757.62,35.08 230.34,35.08"/>
        <lane id="-E2_1" index="1" speed="13.89" length="527.28" width="4.00" shape="757.62,31.08 230.34,31.08"/>
        <lane id="-E2_2" index="2" speed="13.89" length="527.28" width="4.00" shape="757.62,27.08 230.34,27.08"/>
        <lane id="-E2_3" index="3" speed="13.89" length="527.28" width="4.00" shape="757.62,23.08 230.34,23.08"/>
    </edge>
    <edge id="-E3" from="J6" to="J4" priority="-1">
        <lane id="-E3_0" index="0" speed="13.89" length="258.67" width="4.00" shape="196.34,299.75 196.34,41.08"/>
        <lane id="-E3_1" index="1" speed="13.89" length="258.67" width="4.00" shape="200.34,299.75 200.34,41.08"/>
        <lane id="-E3_2" index="2" speed="13.89" length="258.67" width="4.00" shape="204.34,299.75 204.34,41.08"/>
        <lane id="-E3_3" index="3" speed="13.89" length="258.67" width="4.00" shape="208.34,299.75 208.34,41.08"/>
    </edge>
    <edge id="-E4" from="J7" to="J4" priority="-1">
        <lane id="-E4_0" index="0" speed="13.89" length="244.60" width="4.00" shape="224.34,-243.52 224.34,1.08"/>
        <lane id="-E4_1" index="1" speed="13.89" length="244.60" width="4.00" shape="220.34,-243.52 220.34,1.08"/>
        <lane id="-E4_2" index="2" speed="13.89" length="244.60" width="4.00" shape="216.34,-243.52 216.34,1.08"/>
        <lane id="-E4_3" index="3" speed="13.89" length="244.60" width="4.00" shape="212.34,-243.52 212.34,1.08"/>
    </edge>
    <edge id="E1" from="J3" to="J4" priority="-1">
        <lane id="E1_0" index="0" speed="13.89" length="430.15" width="4.00" shape="-239.81,7.08 190.34,7.08"/>
        <lane id="E1_1" index="1" speed="13.89" length="430.15" width="4.00" shape="-239.81,11.08 190.34,11.08"/>
        <lane id="E1_2" index="2" speed="13.89" length="430.15" width="4.00" shape="-239.81,15.08 190.34,15.08"/>
        <lane id="E1_3" index="3" speed="13.89" length="430.15" width="4.00" shape="-239.81,19.08 190.34,19.08"/>
    </edge>
    <edge id="E2" from="J4" to="J5" priority="-1">
        <lane id="E2_0" index="0" speed="13.89" length="527.28" width="4.00" shape="230.34,7.08 757.62,7.08"/>
        <lane id="E2_1" index="1" speed="13.89" length="527.28" width="4.00" shape="230.34,11.08 757.62,11.08"/>
        <lane id="E2_2" index="2" speed="13.89" length="527.28" width="4.00" shape="230.34,15.08 757.62,15.08"/>
        <lane id="E2_3" index="3" speed="13.89" length="527.28" width="4.00" shape="230.34,19.08 757.62,19.08"/>
    </edge>
    <edge id="E3" from="J4" to="J6" priority="-1">
        <lane id="E3_0" index="0" speed="13.89" length="258.67" width="4.00" shape="224.34,41.08 224.34,299.75"/>
        <lane id="E3_1" index="1" speed="13.89" length="258.67" width="4.00" shape="220.34,41.08 220.34,299.75"/>
        <lane id="E3_2" index="2" speed="13.89" length="258.67" width="4.00" shape="216.34,41.08 216.34,299.75"/>
        <lane id="E3_3" index="3" speed="13.89" length="258.67" width="4.00" shape="212.34,41.08 212.34,299.75"/>
    </edge>
    <edge id="E4" from="J4" to="J7" priority="-1">
        <lane id="E4_0" index="0" speed="13.89" length="244.60" width="4.00" shape="196.34,1.08 196.34,-243.52"/>
        <lane id="E4_1" index="1" speed="13.89" length="244.60" width="4.00" shape="200.34,1.08 200.34,-243.52"/>
        <lane id="E4_2" index="2" speed="13.89" length="244.60" width="4.00" shape="204.34,1.08 204.34,-243.52"/>
        <lane id="E4_3" index="3" speed="13.89" length="244.60" width="4.00" shape="208.34,1.08 208.34,-243.52"/>
    </edge>

    <tlLogic id="J4" type="static" programID="0" offset="0">
        <phase duration="33" state="GGGGrrrrrrGGGGrrrrrr"/>
        <phase duration="3"  state="yyyyrrrrrryyyyrrrrrr"/>
        <phase duration="33" state="rrrrGrrrrrrrrrGrrrrr"/>
        <phase duration="3"  state="rrrryrrrrrrrrryrrrrr"/>
        <phase duration="33" state="rrrrrGGGGrrrrrrGGGGr"/>
        <phase duration="3"  state="rrrrryyyyrrrrrryyyyr"/>
        <phase duration="33" state="rrrrrrrrrGrrrrrrrrrG"/>
        <phase duration="3"  state="rrrrrrrrryrrrrrrrrry"/>
    </tlLogic>

    <junction id="J3" type="dead_end" x="-239.81" y="21.08" incLanes="-E1_0 -E1_1 -E1_2 -E1_3" intLanes="" shape="-239.81,21.08 -239.81,37.08 -239.81,21.08"/>
    <junction id="J4" type="traffic_light" x="210.34" y="21.08" incLanes="-E3_0 -E3_1 -E3_2 -E3_3 -E2_0 -E2_1 -E2_2 -E2_3 -E4_0 -E4_1 -E4_2 -E4_3 E1_0 E1_1 E1_2 E1_3" intLanes=":J4_0_0 :J4_1_0 :J4_1_1 :J4_1_2 :J4_4_0 :J4_5_0 :J4_6_0 :J4_6_1 :J4_6_2 :J4_9_0 :J4_10_0 :J4_11_0 :J4_11_1 :J4_11_2 :J4_14_0 :J4_15_0 :J4_16_0 :J4_16_1 :J4_16_2 :J4_19_0" shape="194.34,41.08 226.34,41.08 226.78,38.86 227.34,38.08 228.12,37.52 229.12,37.19 230.34,37.08 230.34,5.08 228.12,4.64 227.34,4.08 226.78,3.30 226.45,2.30 226.34,1.08 194.34,1.08 193.90,3.30 193.34,4.08 192.56,4.64 191.56,4.97 190.34,5.08 190.34,37.08 192.56,37.52 193.34,38.08 193.90,38.86 194.23,39.86">
        <request index="0"  response="00000000000000000000" foes="00000000000111000000" cont="0"/>
        <request index="1"  response="00000000000000000000" foes="11111100000111000000" cont="0"/>
        <request index="2"  response="00000000000000000000" foes="11111100000111000000" cont="0"/>
        <request index="3"  response="00000000000000000000" foes="11111100000111000000" cont="0"/>
        <request index="4"  response="00000011100000000000" foes="10000011101111000000" cont="0"/>
        <request index="5"  response="00000011100000000000" foes="00000011100000000000" cont="0"/>
        <request index="6"  response="00000011100000011111" foes="10000011100000011111" cont="0"/>
        <request index="7"  response="00000011100000011111" foes="10000011100000011111" cont="0"/>
        <request index="8"  response="00000011100000011111" foes="10000011100000011111" cont="0"/>
        <request index="9"  response="01110111100000010000" foes="01110111100000010000" cont="0"/>
        <request index="10" response="00000000000000000000" foes="01110000000000000000" cont="0"/>
        <request index="11" response="00000000000000000000" foes="01110000001111110000" cont="0"/>
        <request index="12" response="00000000000000000000" foes="01110000001111110000" cont="0"/>
        <request index="13" response="00000000000000000000" foes="01110000001111110000" cont="0"/>
        <request index="14" response="00000000000000001110" foes="11110000001000001110" cont="0"/>
        <request index="15" response="00000000000000001110" foes="00000000000000001110" cont="0"/>
        <request index="16" response="00000111110000001110" foes="00000111111000001110" cont="0"/>
        <request index="17" response="00000111110000001110" foes="00000111111000001110" cont="0"/>
        <request index="18" response="00000111110000001110" foes="00000111111000001110" cont="0"/>
        <request index="19" response="00000100000111011110" foes="00000100000111011110" cont="0"/>
    </junction>
    <junction id="J5" type="dead_end" x="757.62" y="21.08" incLanes="E2_0 E2_1 E2_2 E2_3" intLanes="" shape="757.62,21.08 757.62,5.08 757.62,21.08"/>
    <junction id="J6" type="dead_end" x="210.34" y="299.75" incLanes="E3_0 E3_1 E3_2 E3_3" intLanes="" shape="210.34,299.75 226.34,299.75 210.34,299.75"/>
    <junction id="J7" type="dead_end" x="210.34" y="-243.52" incLanes="E4_0 E4_1 E4_2 E4_3" intLanes="" shape="210.34,-243.52 194.34,-243.52 210.34,-243.52"/>

    <connection from="-E2" to="E3" fromLane="0" toLane="0" via=":J4_5_0" tl="J4" linkIndex="5" dir="r" state="o"/>
    <connection from="-E2" to="-E1" fromLane="0" toLane="0" via=":J4_6_0" tl="J4" linkIndex="6" dir="s" state="o"/>
    <connection from="-E2" to="-E1" fromLane="1" toLane="1" via=":J4_6_1" tl="J4" linkIndex="7" dir="s" state="o"/>
    <connection from="-E2" to="-E1" fromLane="2" toLane="2" via=":J4_6_2" tl="J4" linkIndex="8" dir="s" state="o"/>
    <connection from="-E2" to="E4" fromLane="3" toLane="3" via=":J4_9_0" tl="J4" linkIndex="9" dir="l" state="o"/>
    <connection from="-E3" to="-E1" fromLane="0" toLane="0" via=":J4_0_0" tl="J4" linkIndex="0" dir="r" state="O"/>
    <connection from="-E3" to="E4" fromLane="0" toLane="0" via=":J4_1_0" tl="J4" linkIndex="1" dir="s" state="O"/>
    <connection from="-E3" to="E4" fromLane="1" toLane="1" via=":J4_1_1" tl="J4" linkIndex="2" dir="s" state="O"/>
    <connection from="-E3" to="E4" fromLane="2" toLane="2" via=":J4_1_2" tl="J4" linkIndex="3" dir="s" state="O"/>
    <connection from="-E3" to="E2" fromLane="3" toLane="3" via=":J4_4_0" tl="J4" linkIndex="4" dir="l" state="o"/>
    <connection from="-E4" to="E2" fromLane="0" toLane="0" via=":J4_10_0" tl="J4" linkIndex="10" dir="r" state="O"/>
    <connection from="-E4" to="E3" fromLane="0" toLane="0" via=":J4_11_0" tl="J4" linkIndex="11" dir="s" state="O"/>
    <connection from="-E4" to="E3" fromLane="1" toLane="1" via=":J4_11_1" tl="J4" linkIndex="12" dir="s" state="O"/>
    <connection from="-E4" to="E3" fromLane="2" toLane="2" via=":J4_11_2" tl="J4" linkIndex="13" dir="s" state="O"/>
    <connection from="-E4" to="-E1" fromLane="3" toLane="3" via=":J4_14_0" tl="J4" linkIndex="14" dir="l" state="o"/>
    <connection from="E1" to="E4" fromLane="0" toLane="0" via=":J4_15_0" tl="J4" linkIndex="15" dir="r" state="o"/>
    <connection from="E1" to="E2" fromLane="0" toLane="0" via=":J4_16_0" tl="J4" linkIndex="16" dir="s" state="o"/>
    <connection from="E1" to="E2" fromLane="1" toLane="1" via=":J4_16_1" tl="J4" linkIndex="17" dir="s" state="o"/>
    <connection from="E1" to="E2" fromLane="2" toLane="2" via=":J4_16_2" tl="J4" linkIndex="18" dir="s" state="o"/>
    <connection from="E1" to="E3" fromLane="3" toLane="3" via=":J4_19_0" tl="J4" linkIndex="19" dir="l" state="o"/>

    <connection from=":J4_0" to="-E1" fromLane="0" toLane="0" dir="r" state="M"/>
    <connection from=":J4_1" to="E4" fromLane="0" toLane="0" dir="s" state="M"/>
    <connection from=":J4_1" to="E4" fromLane="1" toLane="1" dir="s" state="M"/>
    <connection from=":J4_1" to="E4" fromLane="2" toLane="2" dir="s" state="M"/>
    <connection from=":J4_4" to="E2" fromLane="0" toLane="3" dir="l" state="M"/>
    <connection from=":J4_5" to="E3" fromLane="0" toLane="0" dir="r" state="M"/>
    <connection from=":J4_6" to="-E1" fromLane="0" toLane="0" dir="s" state="M"/>
    <connection from=":J4_6" to="-E1" fromLane="1" toLane="1" dir="s" state="M"/>
    <connection from=":J4_6" to="-E1" fromLane="2" toLane="2" dir="s" state="M"/>
    <connection from=":J4_9" to="E4" fromLane="0" toLane="3" dir="l" state="M"/>
    <connection from=":J4_10" to="E2" fromLane="0" toLane="0" dir="r" state="M"/>
    <connection from=":J4_11" to="E3" fromLane="0" toLane="0" dir="s" state="M"/>
    <connection from=":J4_11" to="E3" fromLane="1" toLane="1" dir="s" state="M"/>
    <connection from=":J4_11" to="E3" fromLane="2" toLane="2" dir="s" state="M"/>
    <connection from=":J4_14" to="-E1" fromLane="0" toLane="3" dir="l" state="M"/>
    <connection from=":J4_15" to="E4" fromLane="0" toLane="0" dir="r" state="M"/>
    <connection from=":J4_16" to="E2" fromLane="0" toLane="0" dir="s" state="M"/>
    <connection from=":J4_16" to="E2" fromLane="1" toLane="1" dir="s" state="M"/>
    <connection from=":J4_16" to="E2" fromLane="2" toLane="2" dir="s" state="M"/>
    <connection from=":J4_19" to="E3" fromLane="0" toLane="3" dir="l" state="M"/>

</net>
